<?xml version="1.0"?>

<!-- generated on Tue Dec  7 16:05:33 2010 by SUMO netconvert Version 0.12.1
<?xml version="1.0" encoding="iso-8859-1"?>

<configuration>

    <input>
        <osm-files value="map.osm"/>
    </input>

    <projection>
        <proj.simple value="true"/>
    </projection>

</configuration>
-->

<net>

   <location netOffset="991.15,879.31" convBoundary="0.00,0.00,1705.23,1347.68" origBoundary="11.343378,44.489943,11.364853,44.502069" projParameter="-"/>

   <edge id=":245980299_0" function="internal">
      <lanes>
         <lane id=":245980299_0_0" depart="0" maxspeed="22.22" length="4.82" shape="85.62,1255.88 84.17,1255.52 83.51,1254.88 83.62,1253.96 84.51,1252.77"/>
      </lanes>
   </edge>
   <edge id=":245980310_0" function="internal">
      <lanes>
         <lane id=":245980310_0_0" depart="0" maxspeed="13.89" length="5.79" shape="458.03,858.08 456.31,857.86 455.23,858.29 454.78,859.36 454.97,861.08"/>
      </lanes>
   </edge>
   <edge id=":245980310_1" function="internal">
      <lanes>
         <lane id=":245980310_1_0" depart="0" maxspeed="13.89" length="6.69" shape="458.03,858.08 451.54,856.43"/>
      </lanes>
   </edge>
   <edge id=":245980367_0" function="internal">
      <lanes>
         <lane id=":245980367_0_0" depart="0" maxspeed="22.22" length="6.21" shape="567.67,1084.88 561.82,1086.96"/>
      </lanes>
   </edge>
   <edge id=":245980367_1" function="internal">
      <lanes>
         <lane id=":245980367_1_0" depart="0" maxspeed="22.22" length="0.10" shape="567.67,1084.88 566.33,1084.54"/>
      </lanes>
   </edge>
   <edge id=":245980367_6" function="internal">
      <lanes>
         <lane id=":245980367_6_0" depart="0" maxspeed="22.22" length="4.72" shape="566.33,1084.54 566.23,1084.52 565.57,1083.88 565.68,1082.96 566.57,1081.77"/>
      </lanes>
   </edge>
   <edge id=":245980367_2" function="internal">
      <lanes>
         <lane id=":245980367_2_0" depart="0" maxspeed="18.06" length="5.10" shape="562.47,1079.82 563.20,1081.05 564.14,1081.78 565.26,1082.02 566.57,1081.77"/>
      </lanes>
   </edge>
   <edge id=":245980367_3" function="internal">
      <lanes>
         <lane id=":245980367_3_0" depart="0" maxspeed="18.06" length="3.22" shape="562.47,1079.82 563.57,1084.23"/>
      </lanes>
   </edge>
   <edge id=":245980367_7" function="internal">
      <lanes>
         <lane id=":245980367_7_0" depart="0" maxspeed="18.06" length="4.83" shape="563.57,1084.23 563.61,1084.60 563.08,1086.08 561.82,1086.96"/>
      </lanes>
   </edge>
   <edge id=":245980367_4" function="internal">
      <lanes>
         <lane id=":245980367_4_0" depart="0" maxspeed="22.22" length="6.21" shape="560.72,1083.85 566.57,1081.77"/>
      </lanes>
   </edge>
   <edge id=":245980367_5" function="internal">
      <lanes>
         <lane id=":245980367_5_0" depart="0" maxspeed="22.22" length="0.10" shape="560.72,1083.85 562.07,1084.19"/>
      </lanes>
   </edge>
   <edge id=":245980367_8" function="internal">
      <lanes>
         <lane id=":245980367_8_0" depart="0" maxspeed="22.22" length="4.72" shape="562.07,1084.19 562.16,1084.21 562.83,1084.85 562.71,1085.77 561.82,1086.96"/>
      </lanes>
   </edge>
   <edge id=":245980471_0" function="internal">
      <lanes>
         <lane id=":245980471_0_0" depart="0" maxspeed="22.22" length="6.22" shape="630.30,1062.66 624.44,1064.75"/>
      </lanes>
   </edge>
   <edge id=":245980471_1" function="internal">
      <lanes>
         <lane id=":245980471_1_0" depart="0" maxspeed="22.22" length="4.82" shape="630.30,1062.66 628.86,1062.31 628.19,1061.67 628.30,1060.75 629.19,1059.56"/>
      </lanes>
   </edge>
   <edge id=":245980471_2" function="internal">
      <lanes>
         <lane id=":245980471_2_0" depart="0" maxspeed="18.06" length="5.09" shape="625.10,1057.63 625.82,1058.85 626.75,1059.58 627.87,1059.82 629.19,1059.56"/>
      </lanes>
   </edge>
   <edge id=":245980471_3" function="internal">
      <lanes>
         <lane id=":245980471_3_0" depart="0" maxspeed="18.06" length="8.03" shape="625.10,1057.63 626.01,1060.32 626.21,1062.40 625.69,1063.88 624.44,1064.75"/>
      </lanes>
   </edge>
   <edge id=":245980471_4" function="internal">
      <lanes>
         <lane id=":245980471_4_0" depart="0" maxspeed="22.22" length="6.21" shape="623.34,1061.64 629.19,1059.56"/>
      </lanes>
   </edge>
   <edge id=":245980471_5" function="internal">
      <lanes>
         <lane id=":245980471_5_0" depart="0" maxspeed="22.22" length="4.82" shape="623.34,1061.64 624.78,1062.01 625.44,1062.65 625.33,1063.56 624.44,1064.75"/>
      </lanes>
   </edge>
   <edge id=":250704245_0" function="internal">
      <lanes>
         <lane id=":250704245_0_0" depart="0" maxspeed="13.89" length="6.60" shape="692.96,473.51 686.42,474.40"/>
      </lanes>
   </edge>
   <edge id=":250704245_1" function="internal">
      <lanes>
         <lane id=":250704245_1_0" depart="0" maxspeed="13.89" length="4.99" shape="692.96,473.51 691.63,473.42 690.62,472.93 689.90,472.02 689.50,470.71"/>
      </lanes>
   </edge>
   <edge id=":250704245_2" function="internal">
      <lanes>
         <lane id=":250704245_2_0" depart="0" maxspeed="13.89" length="5.39" shape="689.61,477.36 689.56,475.82 689.01,474.81 687.96,474.34 686.42,474.40"/>
      </lanes>
   </edge>
   <edge id=":250704245_3" function="internal">
      <lanes>
         <lane id=":250704245_3_0" depart="0" maxspeed="13.89" length="6.66" shape="689.61,477.36 689.50,470.71"/>
      </lanes>
   </edge>
   <edge id=":250704251_0" function="internal">
      <lanes>
         <lane id=":250704251_0_0" depart="0" maxspeed="13.89" length="6.06" shape="595.39,484.84 589.38,485.58"/>
      </lanes>
   </edge>
   <edge id=":250704251_1" function="internal">
      <lanes>
         <lane id=":250704251_1_0" depart="0" maxspeed="13.89" length="5.03" shape="595.39,484.84 594.07,484.74 593.05,484.24 592.32,483.32 591.89,481.99"/>
      </lanes>
   </edge>
   <edge id=":250704260_0" function="internal">
      <lanes>
         <lane id=":250704260_0_0" depart="0" maxspeed="8.33" length="4.82" shape="274.47,517.97 274.56,516.49 275.06,515.71 275.98,515.65 277.32,516.31"/>
      </lanes>
   </edge>
   <edge id=":250704262_0" function="internal">
      <lanes>
         <lane id=":250704262_0_0" depart="0" maxspeed="13.89" length="16.20" shape="705.13,773.54 708.57,775.46 712.20,777.49 715.83,779.51 719.28,781.42"/>
      </lanes>
   </edge>
   <edge id=":250704262_1" function="internal">
      <lanes>
         <lane id=":250704262_1_0" depart="0" maxspeed="11.11" length="14.30" shape="705.13,773.54 709.97,776.48 713.26,779.02 714.98,781.16 715.14,782.88"/>
      </lanes>
   </edge>
   <edge id=":250704262_2" function="internal">
      <lanes>
         <lane id=":250704262_2_0" depart="0" maxspeed="11.11" length="11.43" shape="705.13,773.54 708.69,775.80 711.04,777.90 712.17,779.85 712.08,781.65"/>
      </lanes>
   </edge>
   <edge id=":250704262_3" function="internal">
      <lanes>
         <lane id=":250704262_3_0" depart="0" maxspeed="11.11" length="14.68" shape="705.96,779.18 707.43,777.74 710.14,777.64 714.09,778.86 719.28,781.42"/>
      </lanes>
   </edge>
   <edge id=":250704262_4" function="internal">
      <lanes>
         <lane id=":250704262_4_0" depart="0" maxspeed="8.33" length="4.82" shape="709.02,780.41 710.25,779.57 711.17,779.50 711.78,780.19 712.08,781.65"/>
      </lanes>
   </edge>
   <edge id=":250704263_0" function="internal">
      <lanes>
         <lane id=":250704263_0_0" depart="0" maxspeed="13.89" length="7.18" shape="813.41,829.32 814.17,831.64 814.98,833.44 815.84,834.73 816.76,835.51"/>
      </lanes>
   </edge>
   <edge id=":250704263_1" function="internal">
      <lanes>
         <lane id=":250704263_1_0" depart="0" maxspeed="13.89" length="7.51" shape="810.19,831.87 816.76,835.51"/>
      </lanes>
   </edge>
   <edge id=":250704265_0" function="internal">
      <lanes>
         <lane id=":250704265_0_0" depart="0" maxspeed="13.89" length="6.57" shape="831.61,843.75 837.43,846.78"/>
      </lanes>
   </edge>
   <edge id=":250704265_1" function="internal">
      <lanes>
         <lane id=":250704265_1_0" depart="0" maxspeed="13.89" length="5.77" shape="831.61,843.75 833.00,844.78 833.48,845.83 833.06,846.92 831.74,848.03"/>
      </lanes>
   </edge>
   <edge id=":250704266_0" function="internal">
      <lanes>
         <lane id=":250704266_0_0" depart="0" maxspeed="22.22" length="6.65" shape="1004.87,924.63 999.23,928.16"/>
      </lanes>
   </edge>
   <edge id=":250704266_1" function="internal">
      <lanes>
         <lane id=":250704266_1_0" depart="0" maxspeed="22.22" length="4.82" shape="1004.87,924.63 1003.41,924.33 1002.72,923.72 1002.80,922.80 1003.63,921.57"/>
      </lanes>
   </edge>
   <edge id=":250704266_2" function="internal">
      <lanes>
         <lane id=":250704266_2_0" depart="0" maxspeed="18.06" length="6.90" shape="996.94,921.21 998.68,921.85 1000.38,922.12 1002.03,922.03 1003.63,921.57"/>
      </lanes>
   </edge>
   <edge id=":250704266_3" function="internal">
      <lanes>
         <lane id=":250704266_3_0" depart="0" maxspeed="18.06" length="9.77" shape="996.94,921.21 999.81,922.92 1001.16,924.65 1000.96,926.39 999.23,928.16"/>
      </lanes>
   </edge>
   <edge id=":250704266_4" function="internal">
      <lanes>
         <lane id=":250704266_4_0" depart="0" maxspeed="22.22" length="7.42" shape="997.32,925.46 1003.63,921.57"/>
      </lanes>
   </edge>
   <edge id=":250704266_5" function="internal">
      <lanes>
         <lane id=":250704266_5_0" depart="0" maxspeed="22.22" length="4.82" shape="997.32,925.46 998.81,925.42 999.62,925.85 999.76,926.77 999.23,928.16"/>
      </lanes>
   </edge>
   <edge id=":250704267_0" function="internal">
      <lanes>
         <lane id=":250704267_0_0" depart="0" maxspeed="11.11" length="9.34" shape="413.50,847.62 411.47,847.49 409.43,848.02 407.36,849.23 405.27,851.10"/>
      </lanes>
   </edge>
   <edge id=":250704267_1" function="internal">
      <lanes>
         <lane id=":250704267_1_0" depart="0" maxspeed="13.89" length="12.14" shape="413.50,847.62 410.28,846.87 407.59,846.22 404.91,845.54 401.72,844.70"/>
      </lanes>
   </edge>
   <edge id=":250704267_2" function="internal">
      <lanes>
         <lane id=":250704267_2_0" depart="0" maxspeed="11.11" length="9.65" shape="413.50,847.62 410.37,846.56 408.69,845.16 408.47,843.43 409.71,841.36"/>
      </lanes>
   </edge>
   <edge id=":250704267_3" function="internal">
      <lanes>
         <lane id=":250704267_3_0" depart="0" maxspeed="8.33" length="10.24" shape="412.19,843.54 410.20,845.80 408.79,847.37 407.34,848.92 405.27,851.10"/>
      </lanes>
   </edge>
   <edge id=":250704267_4" function="internal">
      <lanes>
         <lane id=":250704267_4_0" depart="0" maxspeed="11.11" length="11.04" shape="412.19,843.54 410.48,844.81 408.17,845.42 405.25,845.39 401.72,844.70"/>
      </lanes>
   </edge>
   <edge id=":250704267_5" function="internal">
      <lanes>
         <lane id=":250704267_5_0" depart="0" maxspeed="8.33" length="4.82" shape="412.19,843.54 410.75,843.93 409.86,843.69 409.51,842.84 409.71,841.36"/>
      </lanes>
   </edge>
   <edge id=":250704267_6" function="internal">
      <lanes>
         <lane id=":250704267_6_0" depart="0" maxspeed="11.11" length="5.78" shape="402.88,848.82 403.90,847.42 404.04,846.27 403.31,845.36 401.72,844.70"/>
      </lanes>
   </edge>
   <edge id=":250704267_7" function="internal">
      <lanes>
         <lane id=":250704267_7_0" depart="0" maxspeed="8.33" length="10.12" shape="402.88,848.82 404.94,846.66 406.35,845.14 407.74,843.60 409.71,841.36"/>
      </lanes>
   </edge>
   <edge id=":250704267_8" function="internal">
      <lanes>
         <lane id=":250704267_8_0" depart="0" maxspeed="8.33" length="4.82" shape="402.88,848.82 404.33,848.50 405.22,848.77 405.53,849.63 405.27,851.10"/>
      </lanes>
   </edge>
   <edge id=":250704281_0" function="internal">
      <lanes>
         <lane id=":250704281_0_0" depart="0" maxspeed="13.89" length="6.52" shape="493.63,658.26 499.41,661.28"/>
      </lanes>
   </edge>
   <edge id=":250704281_1" function="internal">
      <lanes>
         <lane id=":250704281_1_0" depart="0" maxspeed="13.89" length="5.77" shape="494.15,662.55 495.60,661.52 496.96,660.97 498.23,660.88 499.41,661.28"/>
      </lanes>
   </edge>
   <edge id=":250707351_0" function="internal">
      <lanes>
         <lane id=":250707351_0_0" depart="0" maxspeed="8.33" length="12.86" shape="548.28,690.24 546.20,688.42 545.32,685.91 545.66,682.69 547.20,678.78"/>
      </lanes>
   </edge>
   <edge id=":250707351_1" function="internal">
      <lanes>
         <lane id=":250707351_1_0" depart="0" maxspeed="9.72" length="4.82" shape="548.28,690.24 547.59,688.92 547.63,688.00 548.38,687.48 549.87,687.35"/>
      </lanes>
   </edge>
   <edge id=":250707351_2" function="internal">
      <lanes>
         <lane id=":250707351_2_0" depart="0" maxspeed="9.72" length="4.96" shape="550.15,680.27 549.71,681.55 549.79,682.67 550.37,683.64 551.45,684.45"/>
      </lanes>
   </edge>
   <edge id=":250707351_3" function="internal">
      <lanes>
         <lane id=":250707351_3_0" depart="0" maxspeed="8.33" length="4.82" shape="550.15,680.27 548.85,681.00 547.93,681.00 547.38,680.26 547.20,678.78"/>
      </lanes>
   </edge>
   <edge id=":250707351_4" function="internal">
      <lanes>
         <lane id=":250707351_4_0" depart="0" maxspeed="11.11" length="9.15" shape="540.89,684.28 542.32,684.52 543.85,683.68 545.48,681.77 547.20,678.78"/>
      </lanes>
   </edge>
   <edge id=":250707351_5" function="internal">
      <lanes>
         <lane id=":250707351_5_0" depart="0" maxspeed="12.50" length="9.49" shape="540.89,684.28 549.87,687.35"/>
      </lanes>
   </edge>
   <edge id=":250711128_0" function="internal">
      <lanes>
         <lane id=":250711128_0_0" depart="0" maxspeed="13.89" length="3.58" shape="1027.64,696.72 1027.54,695.67 1027.13,695.06 1026.42,694.90 1025.40,695.19"/>
      </lanes>
   </edge>
   <edge id=":250711129_0" function="internal">
      <lanes>
         <lane id=":250711129_0_0" depart="0" maxspeed="22.22" length="7.57" shape="1022.78,919.29 1015.29,920.42"/>
      </lanes>
   </edge>
   <edge id=":250711129_1" function="internal">
      <lanes>
         <lane id=":250711129_1_0" depart="0" maxspeed="15.28" length="10.41" shape="1022.78,919.29 1019.96,918.83 1017.98,917.57 1016.84,915.51 1016.55,912.67"/>
      </lanes>
   </edge>
   <edge id=":250711129_2" function="internal">
      <lanes>
         <lane id=":250711129_2_0" depart="0" maxspeed="22.22" length="4.82" shape="1022.78,919.29 1021.56,918.44 1021.17,917.61 1021.60,916.79 1022.85,915.99"/>
      </lanes>
   </edge>
   <edge id=":250711129_3" function="internal">
      <lanes>
         <lane id=":250711129_3_0" depart="0" maxspeed="15.28" length="5.02" shape="1019.85,912.80 1019.99,914.17 1020.54,915.16 1021.49,915.77 1022.85,915.99"/>
      </lanes>
   </edge>
   <edge id=":250711129_4" function="internal">
      <lanes>
         <lane id=":250711129_4_0" depart="0" maxspeed="15.28" length="9.41" shape="1019.85,912.80 1019.48,915.48 1018.59,917.64 1017.20,919.29 1015.29,920.42"/>
      </lanes>
   </edge>
   <edge id=":250711129_5" function="internal">
      <lanes>
         <lane id=":250711129_5_0" depart="0" maxspeed="8.33" length="4.82" shape="1019.85,912.80 1018.97,914.00 1018.13,914.38 1017.33,913.94 1016.55,912.67"/>
      </lanes>
   </edge>
   <edge id=":250711129_6" function="internal">
      <lanes>
         <lane id=":250711129_6_0" depart="0" maxspeed="15.28" length="5.62" shape="1014.05,917.36 1015.09,916.71 1015.85,915.71 1016.34,914.36 1016.55,912.67"/>
      </lanes>
   </edge>
   <edge id=":250711129_7" function="internal">
      <lanes>
         <lane id=":250711129_7_0" depart="0" maxspeed="22.22" length="8.90" shape="1014.05,917.36 1022.85,915.99"/>
      </lanes>
   </edge>
   <edge id=":250711129_8" function="internal">
      <lanes>
         <lane id=":250711129_8_0" depart="0" maxspeed="22.22" length="4.82" shape="1014.05,917.36 1015.51,917.66 1016.20,918.27 1016.13,919.19 1015.29,920.42"/>
      </lanes>
   </edge>
   <edge id=":250711130_0" function="internal">
      <lanes>
         <lane id=":250711130_0_0" depart="0" maxspeed="22.22" length="6.88" shape="1046.01,923.66 1045.13,921.95 1044.00,920.72 1042.59,919.97 1040.92,919.69"/>
      </lanes>
   </edge>
   <edge id=":250711130_1" function="internal">
      <lanes>
         <lane id=":250711130_1_0" depart="0" maxspeed="22.22" length="10.54" shape="1046.01,923.66 1044.93,920.79 1044.32,918.65 1044.11,916.46 1044.24,913.41"/>
      </lanes>
   </edge>
   <edge id=":250711130_2" function="internal">
      <lanes>
         <lane id=":250711130_2_0" depart="0" maxspeed="22.22" length="3.77" shape="1046.01,923.66 1045.31,918.86"/>
      </lanes>
   </edge>
   <edge id=":250711130_9" function="internal">
      <lanes>
         <lane id=":250711130_9_0" depart="0" maxspeed="22.22" length="5.74" shape="1045.31,918.86 1045.36,918.35 1046.63,917.16 1048.96,916.97"/>
      </lanes>
   </edge>
   <edge id=":250711130_3" function="internal">
      <lanes>
         <lane id=":250711130_3_0" depart="0" maxspeed="22.22" length="7.72" shape="1048.62,920.25 1040.92,919.69"/>
      </lanes>
   </edge>
   <edge id=":250711130_4" function="internal">
      <lanes>
         <lane id=":250711130_4_0" depart="0" maxspeed="22.22" length="5.90" shape="1048.62,920.25 1046.53,919.64 1044.94,917.86"/>
      </lanes>
   </edge>
   <edge id=":250711130_10" function="internal">
      <lanes>
         <lane id=":250711130_10_0" depart="0" maxspeed="22.22" length="3.26" shape="1044.94,917.86 1044.34,916.22 1044.24,913.41"/>
      </lanes>
   </edge>
   <edge id=":250711130_5" function="internal">
      <lanes>
         <lane id=":250711130_5_0" depart="0" maxspeed="22.22" length="0.10" shape="1048.62,920.25 1047.55,919.37"/>
      </lanes>
   </edge>
   <edge id=":250711130_11" function="internal">
      <lanes>
         <lane id=":250711130_11_0" depart="0" maxspeed="22.22" length="4.72" shape="1047.55,919.37 1047.48,919.30 1047.15,918.44 1047.65,917.66 1048.96,916.97"/>
      </lanes>
   </edge>
   <edge id=":250711130_6" function="internal">
      <lanes>
         <lane id=":250711130_6_0" depart="0" maxspeed="22.22" length="4.97" shape="1041.00,916.39 1042.33,916.23 1043.32,915.68 1043.95,914.74 1044.24,913.41"/>
      </lanes>
   </edge>
   <edge id=":250711130_7" function="internal">
      <lanes>
         <lane id=":250711130_7_0" depart="0" maxspeed="22.22" length="7.99" shape="1041.00,916.39 1048.96,916.97"/>
      </lanes>
   </edge>
   <edge id=":250711130_8" function="internal">
      <lanes>
         <lane id=":250711130_8_0" depart="0" maxspeed="22.22" length="0.10" shape="1041.00,916.39 1042.13,917.19"/>
      </lanes>
   </edge>
   <edge id=":250711130_12" function="internal">
      <lanes>
         <lane id=":250711130_12_0" depart="0" maxspeed="22.22" length="4.72" shape="1042.13,917.19 1042.21,917.24 1042.61,918.08 1042.18,918.89 1040.92,919.69"/>
      </lanes>
   </edge>
   <edge id=":250711131_0" function="internal">
      <lanes>
         <lane id=":250711131_0_0" depart="0" maxspeed="11.11" length="5.37" shape="643.34,734.94 642.42,736.16 642.21,737.29 642.71,738.33 643.93,739.26"/>
      </lanes>
   </edge>
   <edge id=":250711131_1" function="internal">
      <lanes>
         <lane id=":250711131_1_0" depart="0" maxspeed="8.33" length="4.82" shape="643.34,734.94 641.88,735.23 641.00,734.94 640.71,734.06 641.00,732.60"/>
      </lanes>
   </edge>
   <edge id=":250711131_2" function="internal">
      <lanes>
         <lane id=":250711131_2_0" depart="0" maxspeed="11.11" length="6.13" shape="635.59,734.06 636.80,734.58 638.10,734.51 639.51,733.85 641.00,732.60"/>
      </lanes>
   </edge>
   <edge id=":250711131_3" function="internal">
      <lanes>
         <lane id=":250711131_3_0" depart="0" maxspeed="13.89" length="9.83" shape="635.59,734.06 643.93,739.26"/>
      </lanes>
   </edge>
   <edge id=":250711134_0" function="internal">
      <lanes>
         <lane id=":250711134_0_0" depart="0" maxspeed="13.89" length="5.90" shape="758.27,648.79 752.93,651.30"/>
      </lanes>
   </edge>
   <edge id=":250711134_1" function="internal">
      <lanes>
         <lane id=":250711134_1_0" depart="0" maxspeed="13.89" length="4.98" shape="758.27,648.79 756.93,649.07 755.83,648.86 754.94,648.16 754.28,646.97"/>
      </lanes>
   </edge>
   <edge id=":250711135_0" function="internal">
      <lanes>
         <lane id=":250711135_0_0" depart="0" maxspeed="13.89" length="5.17" shape="828.93,624.51 828.19,623.25 827.26,622.51 826.13,622.30 824.80,622.62"/>
      </lanes>
   </edge>
   <edge id=":250711135_1" function="internal">
      <lanes>
         <lane id=":250711135_1_0" depart="0" maxspeed="13.89" length="5.15" shape="828.93,624.51 828.57,623.12 828.77,622.00 829.53,621.15 830.84,620.56"/>
      </lanes>
   </edge>
   <edge id=":250711135_2" function="internal">
      <lanes>
         <lane id=":250711135_2_0" depart="0" maxspeed="13.89" length="5.24" shape="826.60,618.60 827.26,619.80 828.19,620.52 829.38,620.78 830.84,620.56"/>
      </lanes>
   </edge>
   <edge id=":250711135_3" function="internal">
      <lanes>
         <lane id=":250711135_3_0" depart="0" maxspeed="13.89" length="4.99" shape="826.60,618.60 826.88,619.92 826.68,621.04 825.98,621.94 824.80,622.62"/>
      </lanes>
   </edge>
   <edge id=":250711136_0" function="internal">
      <lanes>
         <lane id=":250711136_0_0" depart="0" maxspeed="13.89" length="5.02" shape="878.91,603.72 879.48,604.97 880.32,605.74 881.42,606.00 882.78,605.77"/>
      </lanes>
   </edge>
   <edge id=":250711136_1" function="internal">
      <lanes>
         <lane id=":250711136_1_0" depart="0" maxspeed="13.89" length="6.25" shape="876.79,607.57 882.78,605.77"/>
      </lanes>
   </edge>
   <edge id=":250711137_0" function="internal">
      <lanes>
         <lane id=":250711137_0_0" depart="0" maxspeed="13.89" length="5.06" shape="947.75,581.59 948.38,582.84 949.25,583.57 950.36,583.77 951.72,583.45"/>
      </lanes>
   </edge>
   <edge id=":250711137_1" function="internal">
      <lanes>
         <lane id=":250711137_1_0" depart="0" maxspeed="13.89" length="4.82" shape="947.75,581.59 947.36,583.03 946.71,583.68 945.80,583.55 944.62,582.63"/>
      </lanes>
   </edge>
   <edge id=":250711137_2" function="internal">
      <lanes>
         <lane id=":250711137_2_0" depart="0" maxspeed="13.89" length="5.11" shape="942.67,586.66 943.91,586.05 944.65,585.18 944.88,584.04 944.62,582.63"/>
      </lanes>
   </edge>
   <edge id=":250711137_3" function="internal">
      <lanes>
         <lane id=":250711137_3_0" depart="0" maxspeed="13.89" length="9.60" shape="942.67,586.66 951.72,583.45"/>
      </lanes>
   </edge>
   <edge id=":250711141_0" function="internal">
      <lanes>
         <lane id=":250711141_0_0" depart="0" maxspeed="13.89" length="6.18" shape="886.87,755.53 881.23,758.04"/>
      </lanes>
   </edge>
   <edge id=":250711141_1" function="internal">
      <lanes>
         <lane id=":250711141_1_0" depart="0" maxspeed="13.89" length="5.02" shape="886.87,755.53 885.54,755.90 884.42,755.75 883.51,755.08 882.81,753.89"/>
      </lanes>
   </edge>
   <edge id=":250711142_0" function="internal">
      <lanes>
         <lane id=":250711142_0_0" depart="0" maxspeed="22.22" length="6.21" shape="865.47,979.27 859.62,981.34"/>
      </lanes>
   </edge>
   <edge id=":250711142_1" function="internal">
      <lanes>
         <lane id=":250711142_1_0" depart="0" maxspeed="22.22" length="0.10" shape="865.47,979.27 864.13,978.93"/>
      </lanes>
   </edge>
   <edge id=":250711142_6" function="internal">
      <lanes>
         <lane id=":250711142_6_0" depart="0" maxspeed="22.22" length="4.72" shape="864.13,978.93 864.03,978.90 863.37,978.26 863.48,977.35 864.37,976.16"/>
      </lanes>
   </edge>
   <edge id=":250711142_2" function="internal">
      <lanes>
         <lane id=":250711142_2_0" depart="0" maxspeed="18.06" length="5.01" shape="860.42,974.26 861.05,975.48 861.92,976.20 863.02,976.43 864.37,976.16"/>
      </lanes>
   </edge>
   <edge id=":250711142_3" function="internal">
      <lanes>
         <lane id=":250711142_3_0" depart="0" maxspeed="18.06" length="3.12" shape="860.42,974.26 861.26,978.74"/>
      </lanes>
   </edge>
   <edge id=":250711142_7" function="internal">
      <lanes>
         <lane id=":250711142_7_0" depart="0" maxspeed="18.06" length="4.73" shape="861.26,978.74 861.27,979.05 860.76,980.51 859.62,981.34"/>
      </lanes>
   </edge>
   <edge id=":250711142_4" function="internal">
      <lanes>
         <lane id=":250711142_4_0" depart="0" maxspeed="22.22" length="6.20" shape="858.52,978.22 864.37,976.16"/>
      </lanes>
   </edge>
   <edge id=":250711142_5" function="internal">
      <lanes>
         <lane id=":250711142_5_0" depart="0" maxspeed="22.22" length="0.10" shape="858.52,978.22 859.86,978.57"/>
      </lanes>
   </edge>
   <edge id=":250711142_8" function="internal">
      <lanes>
         <lane id=":250711142_8_0" depart="0" maxspeed="22.22" length="4.72" shape="859.86,978.57 859.96,978.59 860.62,979.23 860.51,980.15 859.62,981.34"/>
      </lanes>
   </edge>
   <edge id=":250713168_0" function="internal">
      <lanes>
         <lane id=":250713168_0_0" depart="0" maxspeed="22.22" length="6.17" shape="728.57,1027.45 722.76,1029.52"/>
      </lanes>
   </edge>
   <edge id=":250713168_1" function="internal">
      <lanes>
         <lane id=":250713168_1_0" depart="0" maxspeed="18.06" length="7.86" shape="728.57,1027.45 727.15,1027.53 725.84,1026.72 724.63,1025.02 723.53,1022.44"/>
      </lanes>
   </edge>
   <edge id=":250713168_2" function="internal">
      <lanes>
         <lane id=":250713168_2_0" depart="0" maxspeed="22.22" length="4.82" shape="728.57,1027.45 727.13,1027.09 726.47,1026.44 726.58,1025.53 727.47,1024.34"/>
      </lanes>
   </edge>
   <edge id=":250713168_3" function="internal">
      <lanes>
         <lane id=":250713168_3_0" depart="0" maxspeed="18.06" length="5.01" shape="721.64,1026.41 722.85,1025.77 723.56,1024.90 723.79,1023.79 723.53,1022.44"/>
      </lanes>
   </edge>
   <edge id=":250713168_4" function="internal">
      <lanes>
         <lane id=":250713168_4_0" depart="0" maxspeed="22.22" length="6.19" shape="721.64,1026.41 727.47,1024.34"/>
      </lanes>
   </edge>
   <edge id=":250713168_5" function="internal">
      <lanes>
         <lane id=":250713168_5_0" depart="0" maxspeed="22.22" length="4.82" shape="721.64,1026.41 723.08,1026.77 723.75,1027.41 723.64,1028.32 722.76,1029.52"/>
      </lanes>
   </edge>
   <edge id=":250713171_0" function="internal">
      <lanes>
         <lane id=":250713171_0_0" depart="0" maxspeed="11.11" length="4.38" shape="704.14,810.13 700.02,811.62"/>
      </lanes>
   </edge>
   <edge id=":250713171_1" function="internal">
      <lanes>
         <lane id=":250713171_1_0" depart="0" maxspeed="8.33" length="4.82" shape="701.08,808.89 699.85,809.73 698.93,809.80 698.32,809.11 698.02,807.65"/>
      </lanes>
   </edge>
   <edge id=":250713171_2" function="internal">
      <lanes>
         <lane id=":250713171_2_0" depart="0" maxspeed="11.11" length="4.49" shape="696.93,810.46 694.96,806.42"/>
      </lanes>
   </edge>
   <edge id=":250713171_3" function="internal">
      <lanes>
         <lane id=":250713171_3_0" depart="0" maxspeed="11.11" length="3.01" shape="696.93,810.46 698.02,807.65"/>
      </lanes>
   </edge>
   <edge id=":250713171_4" function="internal">
      <lanes>
         <lane id=":250713171_4_0" depart="0" maxspeed="13.89" length="4.82" shape="696.93,810.46 698.13,809.59 699.05,809.49 699.68,810.17 700.02,811.62"/>
      </lanes>
   </edge>
   <edge id=":250715937_0" function="internal">
      <lanes>
         <lane id=":250715937_0_0" depart="0" maxspeed="22.22" length="0.87" shape="1009.28,1224.62 1009.80,1223.92"/>
      </lanes>
   </edge>
   <edge id=":250718667_0" function="internal">
      <lanes>
         <lane id=":250718667_0_0" depart="0" maxspeed="13.89" length="9.47" shape="610.27,718.95 618.50,723.64"/>
      </lanes>
   </edge>
   <edge id=":250718667_1" function="internal">
      <lanes>
         <lane id=":250718667_1_0" depart="0" maxspeed="11.11" length="7.85" shape="610.27,718.95 612.59,720.52 614.03,722.03 614.58,723.48 614.24,724.85"/>
      </lanes>
   </edge>
   <edge id=":250718667_2" function="internal">
      <lanes>
         <lane id=":250718667_2_0" depart="0" maxspeed="11.11" length="7.83" shape="611.39,723.19 612.41,722.22 613.94,721.97 615.97,722.45 618.50,723.64"/>
      </lanes>
   </edge>
   <edge id=":250718667_3" function="internal">
      <lanes>
         <lane id=":250718667_3_0" depart="0" maxspeed="8.33" length="4.82" shape="611.39,723.19 612.72,722.53 613.64,722.59 614.15,723.36 614.24,724.85"/>
      </lanes>
   </edge>
   <edge id=":250718668_0" function="internal">
      <lanes>
         <lane id=":250718668_0_0" depart="0" maxspeed="8.33" length="0.88" shape="517.41,745.14 516.74,745.71"/>
      </lanes>
   </edge>
   <edge id=":250718668_1" function="internal">
      <lanes>
         <lane id=":250718668_1_0" depart="0" maxspeed="8.33" length="4.82" shape="517.41,745.14 515.95,745.45 515.07,745.17 514.77,744.30 515.04,742.84"/>
      </lanes>
   </edge>
   <edge id=":250718668_2" function="internal">
      <lanes>
         <lane id=":250718668_2_0" depart="0" maxspeed="8.33" length="0.29" shape="514.82,743.03 515.04,742.84"/>
      </lanes>
   </edge>
   <edge id=":250718668_3" function="internal">
      <lanes>
         <lane id=":250718668_3_0" depart="0" maxspeed="8.33" length="4.82" shape="514.82,743.03 516.31,742.98 517.13,743.41 517.27,744.32 516.74,745.71"/>
      </lanes>
   </edge>
   <edge id=":250734851_0" function="internal">
      <lanes>