<?xml version="1.0"?>
<routes>
    <vehicle id="t0" depart="0.00">
        <route edges="-32242364 23184094 23184096#0 23184096#1 32210009#8 23183657 23184466 -22880342#0 -23288817#2"/>
    </vehicle>
    <vehicle id="t1" depart="1.00">
        <route edges="-32242364 23184094 23184096#0 23184096#1 32210009#8 23183657 23184466 -22880342#0 -23288817#2"/>
    </vehicle>
    <vehicle id="t3" depart="3.00">
        <route edges="-32242364 23184094 23184096#0 23184096#1 32210009#8 23183657 23184466 -22880342#0 -23288817#2"/>
    </vehicle>
    <vehicle id="t5" depart="5.00">
        <route edges="-32242364 23184094 23184096#0 23184096#1 32210009#8 23183657 23184466 -22880342#0 -23288817#2"/>
    </vehicle>
    <vehicle id="t7" depart="7.00">
        <route edges="-32242364 23184094 23184096#0 23184096#1 32210009#8 23183657 23184466 -22880342#0 -23288817#2"/>
    </vehicle>
    <vehicle id="t9" depart="9.00">
        <route edges="-32242364 23184094 23184096#0 23184096#1 32210009#8 23183657 23184466 -22880342#0 -23288817#2"/>
    </vehicle>
    <vehicle id="t10" depart="10.00">
        <route edges="-32242364 23184094 23184096#0 23184096#1 32210009#8 23183657 23184466 -22880342#0 -23288817#2"/>
    </vehicle>
    <vehicle id="t12" depart="12.00">
        <route edges="-32242364 23184094 23184096#0 23184096#1 32210009#8 23183657 23184466 -22880342#0 -23288817#2"/>
    </vehicle>
    <vehicle id="t13" depart="13.00">
        <route edges="-32242364 23184094 23184096#0 23184096#1 32210009#8 23183657 23184466 -22880342#0 -23288817#2"/>
    </vehicle>
    <vehicle id="t15" depart="15.00">
        <route edges="-32242364 23184094 23184096#0 23184096#1 32210009#8 23183657 23184466 -22880342#0 -23288817#2"/>
    </vehicle>
    <vehicle id="t17" depart="17.00">
        <route edges="-32242364 23184094 23184096#0 23184096#1 32210009#8 23183657 23184466 -22880342#0 -23288817#2"/>
    </vehicle>
    <vehicle id="t18" depart="18.00">
        <route edges="-32242364 23184094 23184096#0 23184096#1 32210009#8 23183657 23184466 -22880342#0 -23288817#2"/>
    </vehicle>
    <vehicle id="t19" depart="19.00">
        <route edges="-32242364 23184094 23184096#0 23184096#1 32210009#8 23183657 23184466 -22880342#0 -23288817#2"/>
    </vehicle>
    <vehicle id="t20" depart="20.00">
        <route edges="-32242364 23184094 23184096#0 23184096#1 32210009#8 23183657 23184466 -22880342#0 -23288817#2"/>
    </vehicle>
    <vehicle id="t21" depart="21.00">
        <route edges="-32242364 23184094 23184096#0 23184096#1 32210009#8 23183657 23184466 -22880342#0 -23288817#2"/>
    </vehicle>
    <vehicle id="t22" depart="22.00">
        <route edges="-32242364 23184094 23184096#0 23184096#1 32210009#8 23183657 23184466 -22880342#0 -23288817#2"/>
    </vehicle>
    <vehicle id="t23" depart="23.00">
        <route edges="-32242364 23184094 23184096#0 23184096#1 32210009#8 23183657 23184466 -22880342#0 -23288817#2"/>
    </vehicle>
    <vehicle id="t24" depart="24.00">
        <route edges="-32242364 23184094 23184096#0 23184096#1 32210009#8 23183657 23184466 -22880342#0 -23288817#2"/>
    </vehicle>
    <vehicle id="t25" depart="25.00">
        <route edges="-32242364 23184094 23184096#0 23184096#1 32210009#8 23183657 23184466 -22880342#0 -23288817#2"/>
    </vehicle>
    <vehicle id="t26" depart="26.00">
        <route edges="-32242364 23184094 23184096#0 23184096#1 32210009#8 23183657 23184466 -22880342#0 -23288817#2"/>
    </vehicle>
    <vehicle id="t27" depart="27.00">
        <route edges="-32242364 23184094 23184096#0 23184096#1 32210009#8 23183657 23184466 -22880342#0 -23288817#2"/>
    </vehicle>
    <vehicle id="t28" depart="28.00">
        <route edges="-32242364 23184094 23184096#0 23184096#1 32210009#8 23183657 23184466 -22880342#0 -23288817#2"/>
    </vehicle>
    <vehicle id="t29" depart="29.00">
        <route edges="-32242364 23184094 23184096#0 23184096#1 32210009#8 23183657 23184466 -22880342#0 -23288817#2"/>
    </vehicle>
    <vehicle id="t30" depart="30.00">
        <route edges="-32242364 23184094 23184096#0 23184096#1 32210009#8 23183657 23184466 -22880342#0 -23288817#2"/>
    </vehicle>
    <vehicle id="t32" depart="32.00">
        <route edges="-32242364 23184094 23184096#0 23184096#1 32210009#8 23183657 23184466 -22880342#0 -23288817#2"/>
    </vehicle>
    <vehicle id="t35" depart="35.00">
        <route edges="-32242364 23184094 23184096#0 23184096#1 32210009#8 23183657 23184466 -22880342#0 -23288817#2"/>
    </vehicle>
    <vehicle id="t36" depart="36.00">
        <route edges="-32242364 23184094 23184096#0 23184096#1 32210009#8 23183657 23184466 -22880342#0 -23288817#2"/>
    </vehicle>
    <vehicle id="t37" depart="37.00">
        <route edges="-32242364 23184094 23184096#0 23184096#1 32210009#8 23183657 23184466 -22880342#0 -23288817#2"/>
    </vehicle>
    <vehicle id="t38" depart="38.00">
        <route edges="-32242364 23184094 23184096#0 23184096#1 32210009#8 23183657 23184466 -22880342#0 -23288817#2"/>
    </vehicle>
    <vehicle id="t39" depart="39.00">
        <route edges="-32242364 23184094 23184096#0 23184096#1 32210009#8 23183657 23184466 -22880342#0 -23288817#2"/>
    </vehicle>
    <vehicle id="t40" depart="40.00">
        <route edges="-32242364 23184094 23184096#0 23184096#1 32210009#8 23183657 23184466 -22880342#0 -23288817#2"/>
    </vehicle>
    <vehicle id="t41" depart="41.00">
        <route edges="-32242364 23184094 23184096#0 23184096#1 32210009#8 23183657 23184466 -22880342#0 -23288817#2"/>
    </vehicle>
    <vehicle id="t42" depart="42.00">
        <route edges="-32242364 23184094 23184096#0 23184096#1 32210009#8 23183657 23184466 -22880342#0 -23288817#2"/>
    </vehicle>
    <vehicle id="t43" depart="43.00">
        <route edges="-32242364 23184094 23184096#0 23184096#1 32210009#8 23183657 23184466 -22880342#0 -23288817#2"/>
    </vehicle>
    <vehicle id="t46" depart="46.00">
        <route edges="-32242364 23184094 23184096#0 23184096#1 32210009#8 23183657 23184466 -22880342#0 -23288817#2"/>
    </vehicle>
    <vehicle id="t48" depart="48.00">
        <route edges="-32242364 23184094 23184096#0 23184096#1 32210009#8 23183657 23184466 -22880342#0 -23288817#2"/>
    </vehicle>
    <vehicle id="t50" depart="50.00">
        <route edges="-32242364 23184094 23184096#0 23184096#1 32210009#8 23183657 23184466 -22880342#0 -23288817#2"/>
    </vehicle>
    <vehicle id="t51" depart="51.00">
        <route edges="-32242364 23184094 23184096#0 23184096#1 32210009#8 23183657 23184466 -22880342#0 -23288817#2"/>
    </vehicle>
    <vehicle id="t52" depart="52.00">
        <route edges="-32242364 23184094 23184096#0 23184096#1 32210009#8 23183657 23184466 -22880342#0 -23288817#2"/>
    </vehicle>
    <vehicle id="t53" depart="53.00">
        <route edges="-32242364 23184094 23184096#0 23184096#1 32210009#8 23183657 23184466 -22880342#0 -23288817#2"/>
    </vehicle>
    <vehicle id="t54" depart="54.00">
        <route edges="-32242364 23184094 23184096#0 23184096#1 32210009#8 23183657 23184466 -22880342#0 -23288817#2"/>
    </vehicle>
    <vehicle id="t55" depart="55.00">
        <route edges="-32242364 23184094 23184096#0 23184096#1 32210009#8 23183657 23184466 -22880342#0 -23288817#2"/>
    </vehicle>
    <vehicle id="t56" depart="56.00">
        <route edges="-32242364 23184094 23184096#0 23184096#1 32210009#8 23183657 23184466 -22880342#0 -23288817#2"/>
    </vehicle>
    <vehicle id="t57" depart="57.00">
        <route edges="-32242364 23184094 23184096#0 23184096#1 32210009#8 23183657 23184466 -22880342#0 -23288817#2"/>
    </vehicle>
    <vehicle id="t60" depart="60.00">
        <route edges="-32242364 23184094 23184096#0 23184096#1 32210009#8 23183657 23184466 -22880342#0 -23288817#2"/>
    </vehicle>
    <vehicle id="t61" depart="61.00">
        <route edges="-32242364 23184094 23184096#0 23184096#1 32210009#8 23183657 23184466 -22880342#0 -23288817#2"/>
    </vehicle>
    <vehicle id="t62" depart="62.00">
        <route edges="-32242364 23184094 23184096#0 23184096#1 32210009#8 23183657 23184466 -22880342#0 -23288817#2"/>
    </vehicle>
    <vehicle id="t63" depart="63.00">
        <route edges="-32242364 23184094 23184096#0 23184096#1 32210009#8 23183657 23184466 -22880342#0 -23288817#2"/>
    </vehicle>
    <vehicle id="t64" depart="64.00">
        <route edges="-32242364 23184094 23184096#0 23184096#1 32210009#8 23183657 23184466 -22880342#0 -23288817#2"/>
    </vehicle>
    <vehicle id="t65" depart="65.00">
        <route edges="-32242364 23184094 23184096#0 23184096#1 32210009#8 23183657 23184466 -22880342#0 -23288817#2"/>
    </vehicle>
    <vehicle id="t66" depart="66.00">
        <route edges="-32242364 23184094 23184096#0 23184096#1 32210009#8 23183657 23184466 -22880342#0 -23288817#2"/>
    </vehicle>
    <vehicle id="t67" depart="67.00">
        <route edges="-32242364 23184094 23184096#0 23184096#1 32210009#8 23183657 23184466 -22880342#0 -23288817#2"/>
    </vehicle>
    <vehicle id="t68" depart="68.00">
        <route edges="-32242364 23184094 23184096#0 23184096#1 32210009#8 23183657 23184466 -22880342#0 -23288817#2"/>
    </vehicle>
    <vehicle id="t69" depart="69.00">
        <route edges="-32242364 23184094 23184096#0 23184096#1 32210009#8 23183657 23184466 -22880342#0 -23288817#2"/>
    </vehicle>
    <vehicle id="t71" depart="71.00">
        <route edges="-32242364 23184094 23184096#0 23184096#1 32210009#8 23183657 23184466 -22880342#0 -23288817#2"/>
    </vehicle>
    <vehicle id="t72" depart="72.00">
        <route edges="-32242364 23184094 23184096#0 23184096#1 32210009#8 23183657 23184466 -22880342#0 -23288817#2"/>
    </vehicle>
    <vehicle id="t73" depart="73.00">
        <route edges="-32242364 23184094 23184096#0 23184096#1 32210009#8 23183657 23184466 -22880342#0 -23288817#2"/>
    </vehicle>
    <vehicle id="t75" depart="75.00">
        <route edges="-32242364 23184094 23184096#0 23184096#1 32210009#8 23183657 23184466 -22880342#0 -23288817#2"/>
    </vehicle>
    <vehicle id="t76" depart="76.00">
        <route edges="-32242364 23184094 23184096#0 23184096#1 32210009#8 23183657 23184466 -22880342#0 -23288817#2"/>
    </vehicle>
    <vehicle id="t78" depart="78.00">
        <route edges="-32242364 23184094 23184096#0 23184096#1 32210009#8 23183657 23184466 -22880342#0 -23288817#2"/>
    </vehicle>
    <vehicle id="t79" depart="79.00">
        <route edges="-32242364 23184094 23184096#0 23184096#1 32210009#8 23183657 23184466 -22880342#0 -23288817#2"/>
    </vehicle>
    <vehicle id="t80" depart="80.00">
        <route edges="-32242364 23184094 23184096#0 23184096#1 32210009#8 23183657 23184466 -22880342#0 -23288817#2"/>
    </vehicle>
    <vehicle id="t83" depart="83.00">
        <route edges="-32242364 23184094 23184096#0 23184096#1 32210009#8 23183657 23184466 -22880342#0 -23288817#2"/>
    </vehicle>
    <vehicle id="t84" depart="84.00">
        <route edges="-32242364 23184094 23184096#0 23184096#1 32210009#8 23183657 23184466 -22880342#0 -23288817#2"/>
    </vehicle>
    <vehicle id="t85" depart="85.00">
        <route edges="-32242364 23184094 23184096#0 23184096#1 32210009#8 23183657 23184466 -22880342#0 -23288817#2"/>
    </vehicle>
    <vehicle id="t86" depart="86.00">
        <route edges="-32242364 23184094 23184096#0 23184096#1 32210009#8 23183657 23184466 -22880342#0 -23288817#2"/>
    </vehicle>
    <vehicle id="t87" depart="87.00">
        <route edges="-32242364 23184094 23184096#0 23184096#1 32210009#8 23183657 23184466 -22880342#0 -23288817#2"/>
    </vehicle>
    <vehicle id="t88" depart="88.00">
        <route edges="-32242364 23184094 23184096#0 23184096#1 32210009#8 23183657 23184466 -22880342#0 -23288817#2"/>
    </vehicle>
    <vehicle id="t89" depart="89.00">
        <route edges="-32242364 23184094 23184096#0 23184096#1 32210009#8 23183657 23184466 -22880342#0 -23288817#2"/>
    </vehicle>
    <vehicle id="t90" depart="90.00">
        <route edges="-32242364 23184094 23184096#0 23184096#1 32210009#8 23183657 23184466 -22880342#0 -23288817#2"/>
    </vehicle>
    <vehicle id="t91" depart="91.00">
        <route edges="-32242364 23184094 23184096#0 23184096#1 32210009#8 23183657 23184466 -22880342#0 -23288817#2"/>
    </vehicle>
    <vehicle id="t92" depart="92.00">
        <route edges="-32242364 23184094 23184096#0 23184096#1 32210009#8 23183657 23184466 -22880342#0 -23288817#2"/>
    </vehicle>
    <vehicle id="t93" depart="93.00">
        <route edges="-32242364 23184094 23184096#0 23184096#1 32210009#8 23183657 23184466 -22880342#0 -23288817#2"/>
    </vehicle>
    <vehicle id="t94" depart="94.00">
        <route edges="-32242364 23184094 23184096#0 23184096#1 32210009#8 23183657 23184466 -22880342#0 -23288817#2"/>
    </vehicle>
    <vehicle id="t95" depart="95.00">
        <route edges="-32242364 23184094 23184096#0 23184096#1 32210009#8 23183657 23184466 -22880342#0 -23288817#2"/>
    </vehicle>
    <vehicle id="t96" depart="96.00">
        <route edges="-32242364 23184094 23184096#0 23184096#1 32210009#8 23183657 23184466 -22880342#0 -23288817#2"/>
    </vehicle>
    <vehicle id="t97" depart="97.00">
        <route edges="-32242364 23184094 23184096#0 23184096#1 32210009#8 23183657 23184466 -22880342#0 -23288817#2"/>
    </vehicle>
    <vehicle id="t98" depart="98.00">
        <route edges="-32242364 23184094 23184096#0 23184096#1 32210009#8 23183657 23184466 -22880342#0 -23288817#2"/>
    </vehicle>
    <vehicle id="t99" depart="99.00">
        <route edges="-32242364 23184094 23184096#0 23184096#1 32210009#8 23183657 23184466 -22880342#0 -23288817#2"/>
    </vehicle>
</routes>
